/*--------------------------------*- C++ -*----------------------------------*\
| =========                 |                                                 |
| \\      /  F ield         | OpenFOAM: The Open Source CFD Toolbox           |
|  \\    /   O peration     | Version:  2.1.0                                 |
|   \\  /    A nd           | Web:      www.OpenFOAM.org                      |
|    \\/     M anipulation  |                                                 |
\*---------------------------------------------------------------------------*/
FoamFile
{
    version     2.0;
    format      ascii;
    class       dictionary;
    location    "constant";
    object      tableProperties;
}
// * * * * * * * * * * * * * * * * * * * * * * * * * * * * * * * * * * * * * //

mixtureFractionDefinition "readFromTable";

flameletModelType       FGM3D;

progressVariableDef       CO2+H2O+CO+H2;

interpolationType       linearInterpolation;

operatingPressure       1e5;

canteraFileName         "tables/Table";

PVMin                 0.0000000;
PVMax                 0.2943826;

C_param
          50
(
   0.00000000    
   2.04081628E-02
   4.08163257E-02
   6.12244867E-02
   8.16326514E-02
  0.102040812    
  0.122448973    
  0.142857149    
  0.163265303    
  0.183673471    
  0.204081625    
  0.224489793    
  0.244897947    
  0.265306115    
  0.285714298    
  0.306122452    
  0.326530606    
  0.346938759    
  0.367346942    
  0.387755096    
  0.408163249    
  0.428571433    
  0.448979586    
  0.469387740    
  0.489795893    
  0.510204077    
  0.530612230    
  0.551020384    
  0.571428597    
  0.591836691    
  0.612244904    
  0.632652998    
  0.653061211    
  0.673469424    
  0.693877518    
  0.714285731    
  0.734693885    
  0.755102098    
  0.775510192    
  0.795918405    
  0.816326499    
  0.836734712    
  0.857142866    
  0.877550960    
  0.897959173    
  0.918367267    
  0.938775480    
  0.959183574    
  0.979591787    
   1.00000000    
);

Zeta_param
          25
(
   0.00000000    
   4.34027810E-04
   1.73611124E-03
   3.90625000E-03
   6.94444496E-03
   1.08506940E-02
   1.56250000E-02
   2.12673601E-02
   2.77777798E-02
   3.51562500E-02
   4.34027761E-02
   5.25173619E-02
   6.25000000E-02
   7.33506978E-02
   8.50694403E-02
   9.76562500E-02
  0.111111119    
  0.125434026    
  0.140625000    
  0.156684041    
  0.173611104    
  0.191406250    
  0.210069448    
  0.229600683    
  0.250000000    
);

Z_param
          50
(
   0.00000000    
   1.69916246E-02
   3.39832492E-02
   5.09748757E-02
   6.79664984E-02
   8.49581212E-02
  0.101949751    
  0.118941374    
  0.135932997    
  0.152924627    
  0.169916242    
  0.186907873    
  0.203899503    
  0.220891118    
  0.237882748    
  0.254874378    
  0.271865994    
  0.288857609    
  0.306166291    
  0.323792040    
  0.341734886    
  0.359994739    
  0.378571689    
  0.397465736    
  0.416676819    
  0.436204940    
  0.456050158    
  0.476212442    
  0.496691763    
  0.517488182    
  0.538601637    
  0.560032189    
  0.581779778    
  0.603844464    
  0.626226187    
  0.648925006    
  0.671940863    
  0.695273817    
  0.718923748    
  0.742890835    
  0.767174959    
  0.791776121    
  0.816694438    
  0.841929734    
  0.867482126    
  0.893351555    
  0.919538081    
  0.946041644    
  0.972862303    
   1.00000000    
);

// ************************************************************************* //
